iidm/iidm-serde/src/test/resources/V1_17/fictitiousSwitchRef-bbr.xml
<?xml version="1.0" encoding="UTF-8"?>
<iidm:network xmlns:iidm="http://www.powsybl.org/schema/iidm/1_17" id="fictitious"
              caseDate="2017-06-25T17:43:00.000+01:00" forecastDistance="0" sourceFormat="test"
              minimumValidationLevel="STEADY_STATE_HYPOTHESIS">
    <iidm:substation id="A" country="FR">
        <iidm:voltageLevel id="C" nominalV="225.0" lowVoltageLimit="0.0" topologyKind="BUS_BREAKER">
            <iidm:busBreakerTopology>
                <iidm:bus id="C_0" v="234.40912" angle="0.0"/>
            </iidm:busBreakerTopology>
        </iidm:voltageLevel>
        <iidm:voltageLevel id="N" nominalV="225.0" lowVoltageLimit="220.0" highVoltageLimit="245.00002"
                           topologyKind="BUS_BREAKER">
            <iidm:busBreakerTopology>
                <iidm:bus id="N_0" v="236.44736" angle="15.250391"/>
                <iidm:bus id="N_3"/>
            </iidm:busBreakerTopology>
            <iidm:generator id="CB" energySource="HYDRO" minP="0.0" maxP="70.0" targetP="0.0"
                            localTargetV="0.0" localTargetQ="0.0" connectableBus="N_0">
                <iidm:reactiveCapabilityCurve>
                    <iidm:point p="0.0" minQ="-59.3" maxQ="60.0"/>
                    <iidm:point p="70.0" minQ="-54.55" maxQ="46.25"/>
                </iidm:reactiveCapabilityCurve>
            </iidm:generator>
            <iidm:generator id="CC" energySource="HYDRO" minP="0.0" maxP="80.0" targetP="0.0"
                            localTargetV="0.0" localTargetQ="0.0" connectableBus="N_0">
                <iidm:reactiveCapabilityCurve>
                    <iidm:point p="0.0" minQ="-56.8" maxQ="57.4"/>
                    <iidm:point p="80.0" minQ="-53.514" maxQ="36.4"/>
                </iidm:reactiveCapabilityCurve>
            </iidm:generator>
            <iidm:generator id="CD" energySource="HYDRO" minP="0.0" maxP="35.0"
                            targetP="21.789589" localTargetV="236.44736" localTargetQ="-20.701546" bus="N_0" connectableBus="N_0"
                            p="-21.789589" q="20.693394">
                <iidm:reactiveCapabilityCurve>
                    <iidm:point p="0.0" minQ="-20.6" maxQ="18.1"/>
                    <iidm:point p="35.0" minQ="-21.725" maxQ="6.3500004"/>
                </iidm:reactiveCapabilityCurve>
                <iidm:voltageRegulation mode="VOLTAGE" regulating="true"/>
            </iidm:generator>
            <iidm:load id="CE" loadType="UNDEFINED" p0="-72.18689" q0="50.168945" bus="N_3" connectableBus="N_3"
                       p="-72.18689" q="50.168945"/>
            <iidm:load id="CF" loadType="UNDEFINED" p0="8.455854" q0="-23.695925" bus="N_0" connectableBus="N_0"
                       p="8.455854" q="-23.695925"/>
            <iidm:load id="CG" loadType="UNDEFINED" p0="90.39911" q0="-51.96869" bus="N_0" connectableBus="N_0"
                       p="90.39911" q="-51.96869"/>
            <iidm:load id="CH" loadType="UNDEFINED" p0="-5.102249" q0="4.9081216" bus="N_0" connectableBus="N_0"
                       p="-5.102249" q="4.9081216"/>
        </iidm:voltageLevel>
        <iidm:twoWindingsTransformer id="CI" r="2.0" x="14.745" b="3.2E-5" ratedU1="225.0" ratedU2="225.0"
                                     bus1="C_0" connectableBus1="C_0" voltageLevelId1="C" bus2="N_0"
                                     connectableBus2="N_0" voltageLevelId2="N" selectedOperationalLimitsGroupIds1="DEFAULT"
                                     selectedOperationalLimitsGroupIds2="DEFAULT">
            <iidm:phaseTapChanger tapPosition="22" loadTapChangingCapabilities="true" regulationMode="CURRENT_LIMITER"
                                  regulationValue="930.6667" regulating="false">
                <iidm:terminalRef id="CI" side="ONE"/>
                <iidm:step r="39.78473" x="39.784725" rho="1.0" alpha="-42.8"/>
                <iidm:step r="31.720245" x="31.720242" rho="1.0" alpha="-40.18"/>
                <iidm:step r="23.655737" x="23.655735" rho="1.0" alpha="-37.54"/>
                <iidm:step r="16.263271" x="16.263268" rho="1.0" alpha="-34.9"/>
                <iidm:step r="9.542847" x="9.542842" rho="1.0" alpha="-32.26"/>
                <iidm:step r="3.4944773" x="3.4944773" rho="1.0" alpha="-29.6"/>
                <iidm:step r="-1.8818557" x="-1.8818527" rho="1.0" alpha="-26.94"/>
                <iidm:step r="-7.258195" x="-7.2581954" rho="1.0" alpha="-24.26"/>
                <iidm:step r="-11.962485" x="-11.962484" rho="1.0" alpha="-21.58"/>
                <iidm:step r="-15.994745" x="-15.994745" rho="1.0" alpha="-18.9"/>
                <iidm:step r="-19.354952" x="-19.354952" rho="1.0" alpha="-16.22"/>
                <iidm:step r="-22.043127" x="-22.043129" rho="1.0" alpha="-13.52"/>
                <iidm:step r="-24.73129" x="-24.731287" rho="1.0" alpha="-10.82"/>
                <iidm:step r="-26.747417" x="-26.747417" rho="1.0" alpha="-8.12"/>
                <iidm:step r="-28.091503" x="-28.091503" rho="1.0" alpha="-5.42"/>
                <iidm:step r="-28.763538" x="-28.763536" rho="1.0" alpha="-2.7"/>
                <iidm:step r="-28.763538" x="-28.763536" rho="1.0" alpha="0.0"/>
                <iidm:step r="-28.763538" x="-28.763536" rho="1.0" alpha="2.7"/>
                <iidm:step r="-28.091503" x="-28.091503" rho="1.0" alpha="5.42"/>
                <iidm:step r="-26.747417" x="-26.747417" rho="1.0" alpha="8.12"/>
                <iidm:step r="-24.73129" x="-24.731287" rho="1.0" alpha="10.82"/>
                <iidm:step r="-22.043127" x="-22.043129" rho="1.0" alpha="13.52"/>
                <iidm:step r="-19.354952" x="-19.354952" rho="1.0" alpha="16.22"/>
                <iidm:step r="-15.994745" x="-15.994745" rho="1.0" alpha="18.9"/>
                <iidm:step r="-11.962485" x="-11.962484" rho="1.0" alpha="21.58"/>
                <iidm:step r="-7.258195" x="-7.2581954" rho="1.0" alpha="24.26"/>
                <iidm:step r="-1.8818557" x="-1.8818527" rho="1.0" alpha="26.94"/>
                <iidm:step r="3.4944773" x="3.4944773" rho="1.0" alpha="29.6"/>
                <iidm:step r="9.542847" x="9.542842" rho="1.0" alpha="32.26"/>
                <iidm:step r="16.263271" x="16.263268" rho="1.0" alpha="34.9"/>
                <iidm:step r="23.655737" x="23.655735" rho="1.0" alpha="37.54"/>
                <iidm:step r="31.720245" x="31.720242" rho="1.0" alpha="40.18"/>
                <iidm:step r="39.78473" x="39.784725" rho="1.0" alpha="42.8"/>
            </iidm:phaseTapChanger>
            <iidm:operationalLimitsGroup1 id="DEFAULT">
                <iidm:currentLimits permanentLimit="931.0"/>
            </iidm:operationalLimitsGroup1>
            <iidm:operationalLimitsGroup2 id="DEFAULT">
                <iidm:currentLimits permanentLimit="931.0"/>
            </iidm:operationalLimitsGroup2>
        </iidm:twoWindingsTransformer>
    </iidm:substation>
    <iidm:line id="CJ" r="0.009999999" x="0.100000024" bus1="C_0"
               connectableBus1="C_0" voltageLevelId1="C" bus2="N_3" connectableBus2="N_3" voltageLevelId2="N"
               selectedOperationalLimitsGroupIds1="DEFAULT" selectedOperationalLimitsGroupIds2="DEFAULT">
        <iidm:operationalLimitsGroup1 id="DEFAULT">
            <iidm:currentLimits permanentLimit="931.0"/>
        </iidm:operationalLimitsGroup1>
        <iidm:operationalLimitsGroup2 id="DEFAULT">
            <iidm:currentLimits permanentLimit="931.0">
                <iidm:temporaryLimit name="IST" value="1640.0" fictitious="true"/>
                <iidm:temporaryLimit name="IT1" acceptableDuration="60"/>
            </iidm:currentLimits>
        </iidm:operationalLimitsGroup2>
    </iidm:line>
</iidm:network>
